examples/feeders/CERTEL/CER3_2_33/Segmentos_CER3_2_33.dss
New Line.it_25_10034_0 phases=2 bus1=BT_25_10034.1.2 bus2=BT_141814_1.1.2 LineCode=130 length=0.001 units=km 
New Line.it_25_10034_61557 phases=2 bus1=BT_141806_1.1.2 bus2=BT_141805_1.1.2 LineCode=200 length=0.046 units=km 
New Line.it_25_10034_61558 phases=2 bus1=BT_141807_1.1.2 bus2=BT_141806_1.1.2 LineCode=200 length=0.054 units=km 
New Line.it_25_10034_61559 phases=2 bus1=BT_141808_1.1.2 bus2=BT_141807_1.1.2 LineCode=200 length=0.051 units=km 
New Line.it_25_10034_61560 phases=2 bus1=BT_141809_1.1.2 bus2=BT_141808_1.1.2 LineCode=200 length=0.057 units=km 
New Line.it_25_10034_61561 phases=2 bus1=BT_141810_1.1.2 bus2=BT_141809_1.1.2 LineCode=200 length=0.05 units=km 
New Line.it_25_10034_61562 phases=2 bus1=BT_141811_1.1.2 bus2=BT_141810_1.1.2 LineCode=200 length=0.053 units=km 
New Line.it_25_10034_61563 phases=2 bus1=BT_141812_1.1.2 bus2=BT_141811_1.1.2 LineCode=200 length=0.033 units=km 
New Line.it_25_10034_61564 phases=2 bus1=BT_141813_1.1.2 bus2=BT_141812_1.1.2 LineCode=200 length=0.033 units=km 
New Line.it_25_10034_61565 phases=2 bus1=BT_141814_1.1.2 bus2=BT_141813_1.1.2 LineCode=200 length=0.051 units=km 
New Line.it_25_10034_61567 phases=2 bus1=BT_141814_1.1.2 bus2=BT_141815_1.1.2 LineCode=200 length=0.046 units=km 
New Line.it_25_10034_61568 phases=2 bus1=BT_141815_1.1.2 bus2=BT_141816_1.1.2 LineCode=200 length=0.052 units=km 
New Line.it_25_10034_61569 phases=2 bus1=BT_141818_1.1.2 bus2=BT_141817_1.1.2 LineCode=200 length=0.062 units=km 
New Line.it_25_10034_61570 phases=2 bus1=BT_141816_1.1.2 bus2=BT_141818_1.1.2 LineCode=200 length=0.042 units=km 
New Line.it_25_10112_0 phases=2 bus1=BT_25_10112.1.2 bus2=BT_141993_1.1.2 LineCode=130 length=0.001 units=km 
New Line.it_25_10112_32538 phases=2 bus1=BT_29426_1.1.2 bus2=BT_33333_2.1.2 LineCode=187 length=0.074 units=km 
New Line.it_25_10112_61955 phases=2 bus1=BT_48386_2.1.2 bus2=BT_29425_1.1.2 LineCode=187 length=0.057 units=km 
New Line.it_25_10112_61956 phases=2 bus1=BT_29425_1.1.2 bus2=BT_29426_1.1.2 LineCode=187 length=0.087 units=km 
New Line.it_25_10112_61957 phases=2 bus1=BT_141993_1.1.2 bus2=BT_29427_1.1.2 LineCode=143 length=0.045 units=km 
New Line.it_25_10112_61958 phases=2 bus1=BT_141993_1.1.2 bus2=BT_29428_1.1.2 LineCode=143 length=0.051 units=km 
New Line.it_25_10112_61959 phases=1 bus1=BT_46620_1.1 bus2=BT_29429_1.1 LineCode=201 length=0.029 units=km 
New Line.it_25_10112_61960 phases=1 bus1=BT_29428_1.1 bus2=BT_46620_1.1 LineCode=201 length=0.07 units=km 
New Line.it_25_10112_61961 phases=2 bus1=BT_29427_1.1.2 bus2=BT_48386_2.1.2 LineCode=143 length=0.029 units=km 
New Line.it_25_10113_0 phases=2 bus1=BT_25_10113.1.2 bus2=BT_31509_2.1.2 LineCode=130 length=0.001 units=km 
New Line.it_25_10113_62800 phases=2 bus1=BT_31509_2.1.2 bus2=BT_31508_2.1.2 LineCode=151 length=0.053 units=km 
New Line.it_25_10177_0 phases=2 bus1=BT_25_10177.1.2 bus2=BT_143095_1.1.2 LineCode=130 length=0.001 units=km 
New Line.it_25_10177_64649 phases=2 bus1=BT_143719_1.1.2 bus2=BT_143718_1.1.2 LineCode=151 length=0.057 units=km 
New Line.it_25_10177_64650 phases=2 bus1=BT_143095_1.1.2 bus2=BT_143719_1.1.2 LineCode=151 length=0.062 units=km 
New Line.it_25_10207_0 phases=2 bus1=BT_25_10207.1.2 bus2=BT_49212_1.1.2 LineCode=130 length=0.001 units=km 
New Line.it_25_10383_0 phases=2 bus1=BT_25_10383.1.2 bus2=BT_99887_2.1.2 LineCode=232 length=0.001 units=km 
New Line.it_25_10446_0 phases=3 bus1=BT_25_10446 bus2=BT_134977_1 LineCode=185 length=0.001 units=km 
New Line.it_25_10446_68080 phases=3 bus1=BT_134977_1 bus2=BT_30744_1 LineCode=233 length=0.041 units=km 
New Line.it_25_10446_68082 phases=3 bus1=BT_134977_1 bus2=BT_30745_1 LineCode=233 length=0.057 units=km 
New Line.it_25_10446_68083 phases=3 bus1=BT_30745_1 bus2=BT_75237_1 LineCode=233 length=0.065 units=km 
New Line.it_25_10446_68084 phases=3 bus1=BT_75237_1 bus2=BT_75238_1 LineCode=233 length=0.052 units=km 
New Line.it_25_10446_68085 phases=3 bus1=BT_75238_1 bus2=BT_75239_1 LineCode=233 length=0.05 units=km 
New Line.it_25_10446_68086 phases=3 bus1=BT_75239_1 bus2=BT_75240_1 LineCode=233 length=0.049 units=km 
New Line.it_25_1165_0 phases=2 bus1=BT_25_1165.1.2 bus2=BT_31530_1.1.2 LineCode=232 length=0.001 units=km 
New Line.it_25_1165_35159 phases=2 bus1=BT_31530_1.1.2 bus2=BT_31529_1.1.2 LineCode=187 length=0.105 units=km 
New Line.it_25_1165_35160 phases=2 bus1=BT_31530_1.1.2 bus2=BT_31531_1.1.2 LineCode=187 length=0.089 units=km 
New Line.it_25_1165_35161 phases=2 bus1=BT_31529_1.1.2 bus2=BT_31528_1.1.2 LineCode=187 length=0.083 units=km 
New Line.it_25_1165_35162 phases=2 bus1=BT_31531_1.1.2 bus2=BT_31532_1.1.2 LineCode=187 length=0.094 units=km 
New Line.it_25_1165_35163 phases=2 bus1=BT_31528_1.1.2 bus2=BT_31525_1.1.2 LineCode=187 length=0.086 units=km 
New Line.it_25_1165_35164 phases=2 bus1=BT_31532_1.1.2 bus2=BT_31533_1.1.2 LineCode=187 length=0.077 units=km 
New Line.it_25_1165_35165 phases=2 bus1=BT_31533_1.1.2 bus2=BT_35220_1.1.2 LineCode=187 length=0.046 units=km 
New Line.it_25_1165_35166 phases=2 bus1=BT_31525_1.1.2 bus2=BT_101536_1.1.2 LineCode=187 length=0.089 units=km 
New Line.it_25_1165_35167 phases=1 bus1=BT_101536_1.1 bus2=BT_101535_1.1 LineCode=201 length=0.084 units=km 
New Line.it_25_1165_35168 phases=2 bus1=BT_35220_1.1.2 bus2=BT_35221_1.1.2 LineCode=187 length=0.042 units=km 
New Line.it_25_1165_35512 phases=2 bus1=BT_35221_1.1.2 bus2=BT_35222_1.1.2 LineCode=187 length=0.045 units=km 
New Line.it_25_1165_35564 phases=2 bus1=BT_35222_1.1.2 bus2=BT_35223_1.1.2 LineCode=187 length=0.085 units=km 
New Line.it_25_1165_35565 phases=1 bus1=BT_101535_1.1 bus2=BT_101534_1.1 LineCode=201 length=0.095 units=km 
New Line.it_25_1165_35566 phases=1 bus1=BT_101534_1.1 bus2=BT_31517_1.1 LineCode=201 length=0.063 units=km 
New Line.it_25_1165_35567 phases=2 bus1=BT_35223_1.1.2 bus2=BT_28867_1.1.2 LineCode=187 length=0.116 units=km 
New Line.it_25_1250_0 phases=2 bus1=BT_25_1250.1.2 bus2=BT_23065_1.1.2 LineCode=125 length=0.001 units=km 
New Line.it_25_1250_35568 phases=2 bus1=BT_23065_1.1.2 bus2=BT_23060_1.1.2 LineCode=187 length=0.152 units=km 
New Line.it_25_1250_35569 phases=2 bus1=BT_102643_1.1.2 bus2=BT_23071_2.1.2 LineCode=187 length=0.062 units=km 
New Line.it_25_1250_35570 phases=1 bus1=BT_23065_1.2 bus2=BT_23066_1.2 LineCode=201 length=0.114 units=km 
New Line.it_25_1250_35571 phases=2 bus1=BT_23060_1.1.2 bus2=BT_23061_1.1.2 LineCode=187 length=0.051 units=km 
New Line.it_25_1250_35573 phases=1 bus1=BT_23066_1.2 bus2=BT_23067_1.2 LineCode=201 length=0.111 units=km 
New Line.it_25_1250_35574 phases=1 bus1=BT_23067_1.2 bus2=BT_23068_1.2 LineCode=201 length=0.084 units=km 
New Line.it_25_1250_35577 phases=1 bus1=BT_23068_1.2 bus2=BT_23069_1.2 LineCode=201 length=0.073 units=km 
New Line.it_25_1250_35579 phases=1 bus1=BT_23069_1.2 bus2=BT_23070_1.2 LineCode=201 length=0.127 units=km 
New Line.it_25_1250_45827 phases=2 bus1=BT_23065_1.1.2 bus2=BT_102643_1.1.2 LineCode=187 length=0.095 units=km 
New Line.it_25_1251_0 phases=2 bus1=BT_25_1251.1.2 bus2=BT_33378_1.1.2 LineCode=125 length=0.001 units=km 
New Line.it_25_1251_34385 phases=2 bus1=BT_33371_1.1.2 bus2=BT_33377_1.1.2 LineCode=187 length=0.049 units=km 
New Line.it_25_1251_34386 phases=1 bus1=BT_33379_1.2 bus2=BT_33380_1.2 LineCode=201 length=0.115 units=km 
New Line.it_25_1251_34387 phases=1 bus1=BT_33370_1.2 bus2=BT_33368_1.2 LineCode=201 length=0.087 units=km 
New Line.it_25_1251_34388 phases=1 bus1=BT_33380_1.2 bus2=BT_53665_1.2 LineCode=201 length=0.068 units=km 
New Line.it_25_1251_34389 phases=2 bus1=BT_33372_1.1.2 bus2=BT_33373_1.1.2 LineCode=187 length=0.07 units=km 
New Line.it_25_1251_34390 phases=1 bus1=BT_33368_1.2 bus2=BT_33369_1.2 LineCode=201 length=0.076 units=km 
New Line.it_25_1251_34391 phases=1 bus1=BT_33369_1.2 bus2=BT_53671_1.2 LineCode=201 length=0.059 units=km 
New Line.it_25_1251_34392 phases=2 bus1=BT_33373_1.1.2 bus2=BT_33374_1.1.2 LineCode=187 length=0.111 units=km 
New Line.it_25_1251_35582 phases=1 bus1=BT_33378_1.2 bus2=BT_33379_1.2 LineCode=201 length=0.047 units=km 
New Line.it_25_1251_35583 phases=2 bus1=BT_33378_1.1.2 bus2=BT_33381_1.1.2 LineCode=187 length=0.036 units=km 
New Line.it_25_1251_35584 phases=1 bus1=BT_33378_1.1 bus2=BT_33382_1.1 LineCode=201 length=0.115 units=km 
New Line.it_25_1251_35585 phases=2 bus1=BT_33378_1.1.2 bus2=BT_33371_1.1.2 LineCode=187 length=0.065 units=km 
New Line.it_25_1251_35586 phases=2 bus1=BT_33371_1.1.2 bus2=BT_33372_1.1.2 LineCode=187 length=0.069 units=km 
New Line.it_25_1251_35587 phases=1 bus1=BT_33371_1.2 bus2=BT_33370_1.2 LineCode=201 length=0.079 units=km 
New Line.it_25_1252_0 phases=2 bus1=BT_25_1252.1.2 bus2=BT_33395_1.1.2 LineCode=125 length=0.001 units=km 
New Line.it_25_1252_34393 phases=2 bus1=BT_33395_1.1.2 bus2=BT_33393_1.1.2 LineCode=187 length=0.081 units=km 
New Line.it_25_1252_34937 phases=2 bus1=BT_33395_1.1.2 bus2=BT_33396_1.1.2 LineCode=187 length=0.087 units=km 
New Line.it_25_1252_34938 phases=2 bus1=BT_33396_1.1.2 bus2=BT_33397_1.1.2 LineCode=187 length=0.081 units=km 
New Line.it_25_1252_34939 phases=2 bus1=BT_33393_1.1.2 bus2=BT_33392_1.1.2 LineCode=187 length=0.095 units=km 
New Line.it_25_1252_34940 phases=2 bus1=BT_33397_1.1.2 bus2=BT_33398_1.1.2 LineCode=187 length=0.095 units=km 
New Line.it_25_1252_34941 phases=2 bus1=BT_33393_1.1.2 bus2=BT_33394_1.1.2 LineCode=187 length=0.065 units=km 
New Line.it_25_1252_34942 phases=1 bus1=BT_33393_1.1 bus2=BT_33401_1.1 LineCode=201 length=0.106 units=km 
New Line.it_25_1252_34943 phases=1 bus1=BT_33392_1.1 bus2=BT_33391_1.1 LineCode=201 length=0.104 units=km 
New Line.it_25_1252_34944 phases=1 bus1=BT_33401_1.1 bus2=BT_33402_1.1 LineCode=201 length=0.069 units=km 
New Line.it_25_1252_34945 phases=1 bus1=BT_33402_1.1 bus2=BT_34201_1.1 LineCode=201 length=0.086 units=km 
New Line.it_25_1252_34946 phases=1 bus1=BT_33391_1.1 bus2=BT_33385_1.1 LineCode=201 length=0.048 units=km 
New Line.it_25_1252_34948 phases=1 bus1=BT_34201_1.1 bus2=BT_34202_1.1 LineCode=201 length=0.072 units=km 
New Line.it_25_1253_0 phases=2 bus1=BT_25_1253.1.2 bus2=BT_95659_1.1.2 LineCode=232 length=0.001 units=km 
New Line.it_25_1253_12333 phases=1 bus1=BT_95658_1.1 bus2=BT_95657_1.1 LineCode=201 length=0.078 units=km 
New Line.it_25_1253_12336 phases=1 bus1=BT_95657_1.1 bus2=BT_95656_1.1 LineCode=201 length=0.116 units=km 
New Line.it_25_1253_12337 phases=1 bus1=BT_95656_1.1 bus2=BT_70230_1.1 LineCode=201 length=0.092 units=km 
New Line.it_25_1253_12338 phases=1 bus1=BT_70230_1.1 bus2=BT_95662_1.1 LineCode=201 length=0.044 units=km 
New Line.it_25_1253_35879 phases=2 bus1=BT_95659_1.1.2 bus2=BT_95660_1.1.2 LineCode=187 length=0.049 units=km 
New Line.it_25_1253_35883 phases=2 bus1=BT_95660_1.1.2 bus2=BT_95661_1.1.2 LineCode=187 length=0.072 units=km 
New Line.it_25_1253_37141 phases=1 bus1=BT_95659_1.1 bus2=BT_95658_1.1 LineCode=201 length=0.069 units=km 
New Line.it_25_1254_0 phases=2 bus1=BT_25_1254.1.2 bus2=BT_34222_1.1.2 LineCode=232 length=0.001 units=km 
New Line.it_25_1254_35020 phases=2 bus1=BT_34220_1.1.2 bus2=BT_34221_1.1.2 LineCode=187 length=0.088 units=km 
New Line.it_25_1254_35021 phases=2 bus1=BT_34223_1.1.2 bus2=BT_53668_1.1.2 LineCode=187 length=0.076 units=km 
New Line.it_25_1254_35715 phases=2 bus1=BT_34222_1.1.2 bus2=BT_34218_1.1.2 LineCode=187 length=0.13 units=km 
New Line.it_25_1254_35716 phases=2 bus1=BT_34218_1.1.2 bus2=BT_34219_1.1.2 LineCode=187 length=0.129 units=km 
New Line.it_25_1254_51745 phases=2 bus1=BT_34219_1.1.2 bus2=BT_34220_1.1.2 LineCode=187 length=0.122 units=km 
New Line.it_25_1254_54096 phases=2 bus1=BT_34222_1.1.2 bus2=BT_34223_1.1.2 LineCode=187 length=0.07 units=km 
New Line.it_25_1354_0 phases=2 bus1=BT_25_1354.1.2 bus2=BT_33355_1.1.2 LineCode=125 length=0.001 units=km 
New Line.it_25_1354_35022 phases=1 bus1=BT_33355_1.1 bus2=BT_33356_1.1 LineCode=201 length=0.036 units=km 
New Line.it_25_1354_35023 phases=1 bus1=BT_33356_1.1 bus2=BT_33357_1.1 LineCode=201 length=0.047 units=km 
New Line.it_25_1354_35024 phases=1 bus1=BT_33357_1.1 bus2=BT_33358_1.1 LineCode=201 length=0.076 units=km 
New Line.it_25_1382_0 phases=2 bus1=BT_25_1382.1.2 bus2=BT_53648_1.1.2 LineCode=232 length=0.001 units=km 
New Line.it_25_1382_35025 phases=1 bus1=BT_53648_1.1 bus2=BT_31484_1.1 LineCode=201 length=0.034 units=km 
New Line.it_25_1382_35431 phases=2 bus1=BT_53648_1.1.2 bus2=BT_31485_1.1.2 LineCode=187 length=0.05 units=km 
New Line.it_25_1382_35432 phases=1 bus1=BT_31484_1.1 bus2=BT_31483_1.1 LineCode=201 length=0.06 units=km 
New Line.it_25_1382_35433 phases=2 bus1=BT_31485_1.1.2 bus2=BT_31486_1.1.2 LineCode=187 length=0.104 units=km 
New Line.it_25_1382_35434 phases=1 bus1=BT_31483_1.1 bus2=BT_31586_1.1 LineCode=201 length=0.099 units=km 
New Line.it_25_1382_35435 phases=1 bus1=BT_31486_1.1 bus2=BT_31487_1.1 LineCode=201 length=0.053 units=km 
New Line.it_25_1382_35436 phases=1 bus1=BT_31486_1.2 bus2=BT_53664_1.2 LineCode=201 length=0.162 units=km 
New Line.it_25_1382_35437 phases=1 bus1=BT_31487_1.1 bus2=BT_31488_1.1 LineCode=201 length=0.091 units=km 
New Line.it_25_1483_0 phases=2 bus1=BT_25_1483.1.2 bus2=BT_116480_1.1.2 LineCode=232 length=0.001 units=km 
New Line.it_25_1483_35440 phases=1 bus1=BT_30691_1.2 bus2=BT_30690_1.2 LineCode=201 length=0.08 units=km 
New Line.it_25_1483_35442 phases=1 bus1=BT_52154_1.2 bus2=BT_30691_1.2 LineCode=201 length=0.06 units=km 
New Line.it_25_1483_35444 phases=1 bus1=BT_116480_1.2 bus2=BT_30692_1.2 LineCode=201 length=0.032 units=km 
New Line.it_25_1483_35446 phases=1 bus1=BT_30692_1.2 bus2=BT_30693_1.2 LineCode=201 length=0.105 units=km 
New Line.it_25_1483_35448 phases=1 bus1=BT_30692_1.2 bus2=BT_30694_1.2 LineCode=201 length=0.144 units=km 
New Line.it_25_1483_41056 phases=1 bus1=BT_30690_1.2 bus2=BT_87584_2.2 LineCode=201 length=0.062 units=km 
New Line.it_25_1483_51513 phases=1 bus1=BT_116480_1.2 bus2=BT_52154_1.2 LineCode=201 length=0.081 units=km 
New Line.it_25_1484_0 phases=2 bus1=BT_25_1484.1.2 bus2=BT_30700_1.1.2 LineCode=125 length=0.001 units=km 
New Line.it_25_1484_34447 phases=1 bus1=BT_30704_1.2 bus2=BT_30705_1.2 LineCode=201 length=0.086 units=km 
New Line.it_25_1484_34448 phases=1 bus1=BT_30705_1.2 bus2=BT_30706_1.2 LineCode=201 length=0.096 units=km 
New Line.it_25_1484_35513 phases=1 bus1=BT_30700_1.2 bus2=BT_30699_1.2 LineCode=201 length=0.081 units=km 
New Line.it_25_1484_35514 phases=1 bus1=BT_30700_1.2 bus2=BT_30701_1.2 LineCode=201 length=0.08 units=km 
New Line.it_25_1484_35515 phases=2 bus1=BT_30700_1.1.2 bus2=BT_85593_1.1.2 LineCode=187 length=0.076 units=km 
New Line.it_25_1484_35516 phases=1 bus1=BT_30699_1.2 bus2=BT_30697_1.2 LineCode=201 length=0.056 units=km 
New Line.it_25_1484_35517 phases=2 bus1=BT_85593_1.1.2 bus2=BT_52155_1.1.2 LineCode=187 length=0.209 units=km 
New Line.it_25_1484_35518 phases=1 bus1=BT_30697_1.2 bus2=BT_30698_1.2 LineCode=201 length=0.09 units=km 
New Line.it_25_1484_35519 phases=2 bus1=BT_52155_1.1.2 bus2=BT_85594_1.1.2 LineCode=187 length=0.08 units=km 
New Line.it_25_1484_35520 phases=1 bus1=BT_133066_1.2 bus2=BT_30703_1.2 LineCode=201 length=0.103 units=km 
New Line.it_25_1484_35521 phases=1 bus1=BT_30703_1.2 bus2=BT_30704_1.2 LineCode=201 length=0.069 units=km 
New Line.it_25_1484_54253 phases=1 bus1=BT_30701_1.2 bus2=BT_133066_1.2 LineCode=201 length=0.115 units=km 
New Line.it_25_1485_0 phases=2 bus1=BT_25_1485.1.2 bus2=BT_95153_1.1.2 LineCode=232 length=0.001 units=km 
New Line.it_25_1485_34449 phases=1 bus1=BT_28894_1.1 bus2=BT_23082_1.1 LineCode=201 length=0.048 units=km 
New Line.it_25_1485_34450 phases=1 bus1=BT_23082_1.1 bus2=BT_28872_1.1 LineCode=201 length=0.062 units=km 
New Line.it_25_1485_34451 phases=1 bus1=BT_28872_1.1 bus2=BT_28871_1.1 LineCode=201 length=0.088 units=km 
New Line.it_25_1485_34452 phases=1 bus1=BT_28894_1.1 bus2=BT_28895_1.1 LineCode=201 length=0.09 units=km 
New Line.it_25_1485_34453 phases=1 bus1=BT_28871_1.1 bus2=BT_28870_1.1 LineCode=201 length=0.102 units=km 
New Line.it_25_1485_34454 phases=1 bus1=BT_28870_1.1 bus2=BT_28869_1.1 LineCode=201 length=0.079 units=km 
New Line.it_25_1485_43813 phases=1 bus1=BT_95152_1.1 bus2=BT_28894_1.1 LineCode=214 length=0.185 units=km 
New Line.it_25_1485_43814 phases=1 bus1=BT_95153_1.1 bus2=BT_95152_1.1 LineCode=214 length=0.053 units=km 
New Line.it_25_1485_43815 phases=1 bus1=BT_95153_1.1 bus2=BT_95150_1.1 LineCode=214 length=0.098 units=km 
New Line.it_25_1485_52206 phases=2 bus1=BT_95153_1.1.2 bus2=BT_126105_1.1.2 LineCode=151 length=0.055 units=km 
New Line.it_25_1485_52207 phases=2 bus1=BT_126105_1.1.2 bus2=BT_126106_1.1.2 LineCode=151 length=0.058 units=km 
New Line.it_25_1486_0 phases=2 bus1=BT_25_1486.1.2 bus2=BT_30276_1.1.2 LineCode=232 length=0.001 units=km 
New Line.it_25_1486_34455 phases=1 bus1=BT_30276_1.2 bus2=BT_30275_1.2 LineCode=201 length=0.079 units=km 
New Line.it_25_1486_34456 phases=2 bus1=BT_30276_1.1.2 bus2=BT_30277_1.1.2 LineCode=187 length=0.073 units=km 
New Line.it_25_1486_34457 phases=2 bus1=BT_30277_1.1.2 bus2=BT_30279_1.1.2 LineCode=187 length=0.086 units=km 
New Line.it_25_1486_34458 phases=1 bus1=BT_30277_1.1 bus2=BT_30278_1.1 LineCode=201 length=0.083 units=km 
New Line.it_25_1486_34459 phases=1 bus1=BT_30278_1.1 bus2=BT_30280_1.1 LineCode=201 length=0.089 units=km 
New Line.it_25_1486_45618 phases=1 bus1=BT_30276_1.2 bus2=BT_99109_1.2 LineCode=214 length=0.06 units=km 
New Line.it_25_1486_47995 phases=1 bus1=BT_30275_1.2 bus2=BT_120578_1.2 LineCode=201 length=0.061 units=km 
New Line.it_25_1647_0 phases=2 bus1=BT_25_1647.1.2 bus2=BT_23443_1.1.2 LineCode=125 length=0.001 units=km 
New Line.it_25_1647_34543 phases=2 bus1=BT_23446_1.1.2 bus2=BT_23447_1.1.2 LineCode=128 length=0.082 units=km 
New Line.it_25_1647_34544 phases=2 bus1=BT_23445_1.1.2 bus2=BT_23446_1.1.2 LineCode=128 length=0.088 units=km 
New Line.it_25_1647_34545 phases=2 bus1=BT_23447_1.1.2 bus2=BT_23448_1.1.2 LineCode=128 length=0.103 units=km 
New Line.it_25_1647_34547 phases=2 bus1=BT_52159_1.1.2 bus2=BT_23445_1.1.2 LineCode=128 length=0.098 units=km 
New Line.it_25_1647_34548 phases=2 bus1=BT_23444_1.1.2 bus2=BT_52159_1.1.2 LineCode=128 length=0.087 units=km 
New Line.it_25_1647_34550 phases=2 bus1=BT_23443_1.1.2 bus2=BT_23444_1.1.2 LineCode=128 length=0.057 units=km 
New Line.it_25_1647_34551 phases=2 bus1=BT_23443_1.1.2 bus2=BT_23442_2.1.2 LineCode=128 length=0.104 units=km 
New Line.it_25_1783_0 phases=2 bus1=BT_25_1783.1.2 bus2=BT_31146_1.1.2 LineCode=125 length=0.001 units=km 
New Line.it_25_1783_34554 phases=1 bus1=BT_31146_1.1 bus2=BT_31145_1.1 LineCode=201 length=0.056 units=km 
New Line.it_25_1783_34555 phases=1 bus1=BT_31145_1.1 bus2=BT_22828_1.1 LineCode=201 length=0.089 units=km 
New Line.it_25_1783_34558 phases=1 bus1=BT_22828_1.1 bus2=BT_22827_1.1 LineCode=201 length=0.178 units=km 
New Line.it_25_1802_0 phases=2 bus1=BT_25_1802.1.2 bus2=BT_78205_1.1.2 LineCode=125 length=0.001 units=km 
New Line.it_25_1802_40193 phases=1 bus1=BT_78210_1.1 bus2=BT_78208_1.1 LineCode=214 length=0.101 units=km 
New Line.it_25_1802_40194 phases=1 bus1=BT_78208_1.1 bus2=BT_78207_1.1 LineCode=214 length=0.033 units=km 
New Line.it_25_1802_40195 phases=1 bus1=BT_78205_1.1 bus2=BT_78210_1.1 LineCode=214 length=0.037 units=km 
New Line.it_25_1802_43904 phases=1 bus1=BT_78210_1.1 bus2=BT_98825_1.1 LineCode=214 length=0.085 units=km 
New Line.it_25_1807_0 phases=2 bus1=BT_25_1807.1.2 bus2=BT_69730_1.1.2 LineCode=125 length=0.001 units=km 
New Line.it_25_1807_38939 phases=2 bus1=BT_28892_1.1.2 bus2=BT_28893_1.1.2 LineCode=143 length=0.033 units=km 
New Line.it_25_1807_38940 phases=2 bus1=BT_69730_1.1.2 bus2=BT_28892_1.1.2 LineCode=143 length=0.064 units=km 
New Line.it_25_1807_38941 phases=2 bus1=BT_69730_1.1.2 bus2=BT_69731_1.1.2 LineCode=143 length=0.068 units=km 
New Line.it_25_1807_38942 phases=2 bus1=BT_69731_1.1.2 bus2=BT_69732_1.1.2 LineCode=143 length=0.041 units=km 
New Line.it_25_1807_38943 phases=2 bus1=BT_69732_1.1.2 bus2=BT_69733_1.1.2 LineCode=143 length=0.061 units=km 
New Line.it_25_1807_38985 phases=2 bus1=BT_69733_1.1.2 bus2=BT_69734_1.1.2 LineCode=143 length=0.057 units=km 
New Line.it_25_1906_0 phases=2 bus1=BT_25_1906.1.2 bus2=BT_30751_1.1.2 LineCode=125 length=0.001 units=km 
New Line.it_25_1906_34635 phases=2 bus1=BT_30751_1.1.2 bus2=BT_37548_1.1.2 LineCode=143 length=0.04 units=km 
New Line.it_25_1906_34636 phases=2 bus1=BT_37548_1.1.2 bus2=BT_53643_1.1.2 LineCode=143 length=0.06 units=km 
New Line.it_25_1906_34637 phases=2 bus1=BT_53643_1.1.2 bus2=BT_37549_1.1.2 LineCode=143 length=0.076 units=km 
New Line.it_25_1906_34638 phases=2 bus1=BT_37549_1.1.2 bus2=BT_37550_1.1.2 LineCode=143 length=0.072 units=km 
New Line.it_25_1906_34639 phases=2 bus1=BT_37550_1.1.2 bus2=BT_37551_1.1.2 LineCode=143 length=0.065 units=km 
New Line.it_25_1912_0 phases=2 bus1=BT_25_1912.1.2 bus2=BT_30325_1.1.2 LineCode=125 length=0.001 units=km 
New Line.it_25_1912_24914 phases=1 bus1=BT_30323_1.1 bus2=BT_30322_2.1 LineCode=201 length=0.114 units=km 
New Line.it_25_1912_34640 phases=1 bus1=BT_30325_1.2 bus2=BT_30326_1.2 LineCode=201 length=0.051 units=km 
New Line.it_25_1912_34641 phases=1 bus1=BT_30325_1.1 bus2=BT_30324_1.1 LineCode=201 length=0.108 units=km 
New Line.it_25_1912_34642 phases=1 bus1=BT_30326_1.2 bus2=BT_30327_1.2 LineCode=201 length=0.071 units=km 
New Line.it_25_1912_35893 phases=1 bus1=BT_30324_1.1 bus2=BT_30323_1.1 LineCode=201 length=0.076 units=km 
New Line.it_25_1912_35894 phases=1 bus1=BT_30327_1.2 bus2=BT_52152_1.2 LineCode=201 length=0.06 units=km 
New Line.it_25_1912_35898 phases=1 bus1=BT_52152_1.2 bus2=BT_30328_1.2 LineCode=201 length=0.079 units=km 
New Line.it_25_2018_0 phases=2 bus1=BT_25_2018.1.2 bus2=BT_31564_1.1.2 LineCode=125 length=0.001 units=km 
New Line.it_25_2018_35906 phases=2 bus1=BT_31564_1.1.2 bus2=BT_31565_1.1.2 LineCode=187 length=0.098 units=km 
...
